// Department Store (N)
0 * 0		01 07 
		06 FF 01 00
0 art\departmentstore.png 5 7 09 35 64 -31 -4
0 art\departmentstore.png 85 7 09 84 64 -31 -53
0 art\departmentstore.png 165 7 09 76 64 -31 -45
0 art\departmentstore.png 245 7 09 79 64 -31 -48
0 art\departmentstore.png 319 7 09 31 64 -31 0
0 art\departmentstore.png 394 7 09 79 64 -31 -48
0 * 0		00 07 
		0A 
		01 
		1B 
		08 20 
		09 12 
		0A 0A 27 
		10 60 EA 
		11 FF 
		13 10 38 
		14 01 
		18 04 
		19 02
		1D 04 
// Action 4 to set name:  
    0 * 0	 04 07  // Action 4, Feature 7
                 9F // Language ID
                 01 // Number of strings to change
                 1B C9 // Offset
                 "Flatiron North" 00 // String
                 
// Action 2 Chain:
 1870 * 17	 02 07 00 00 54 0F 00 00 00 00 00 80 00 00 10 10 04 
 1871 * 17	 02 07 01 00 54 0F 00 00 01 00 00 80 00 00 10 10 04 
 1872 * 17	 02 07 02 00 54 0F 00 00 02 00 00 80 00 00 10 10 04 
 1873 * 17	 02 07 03 00 04 00 00 80 03 00 00 80 00 00 10 10 04 
 1874 * 17	 02 07 04 00 04 00 00 80 05 00 00 80 00 00 10 10 04 
 1875 * 18	 02 07 10 81 43 00 FF 02 03 00 00 03 04 00 04 04 03 00 
 1876 * 22	 02 07 11 81 40 00 03 03 00 00 00 00 01 00 01 01 02 00 02 02 10 00 
 1878 * 17	 02 07 16 86 82 00 FF FF 01 00 FF 00 00 B7 0B 11 00 
// Protect 40 Years
 1879 * 18	 02 07 17 81 41 00 FF 02 01 FF 00 28 00 FF 29 FF 00 00 
// Protect 60 Years
 1880 * 18	 02 07 18 81 41 00 FF 02 01 FF 00 3C 00 FF 3D FF 00 00 
// Protect 80 Years
 1881 * 18	 02 07 19 81 41 00 FF 02 01 FF 00 50 00 FF 51 FF 00 00 
// Protect Forever
 1882 * 14	 02 07 1A 81 41 00 FF 01 01 FF 00 FF 00 00 
 1883 * 15	 02 07 1B 80 00 00 04 17 00 18 00 19 00 1A 00 
 1884 * 23	 02 07 1C 85 0C 00 FF FF 02 16 00 17 00 17 00 1B 00 43 01 43 01 11 00 
 1885 * 7	 03 07 01 1B 00 1C 00 
 
// Department Store (E)
 1886 * 6	 01 07 06 FF 01 00 
0 art\departmentstore.png 5 109 09 35 64 -31 -4
0 art\departmentstore.png 85 109 09 80 64 -31 -49
0 art\departmentstore.png 165 109 09 78 64 -31 -47
0 art\departmentstore.png 245 109 09 78 64 -31 -47
0 art\departmentstore.png 319 109 09 31 64 -31 0
0 art\departmentstore.png 394 109 09 78 64 -31 -47
0 * 0		00 07 
		04 
		01 
		1C 
		08 21 
		10 60 EA 
		11 FF 
		1D 04 
// Action 4 to set name:  
    0 * 0	 04 07  // Action 4, Feature 7
                 9F // Language ID
                 01 // Number of strings to change
                 1C C9 // Offset
                 "Department Store East" 00 // String
                 
// Action 2 Chain:
 1895 * 17	 02 07 00 00 54 0F 00 00 00 00 00 80 00 00 10 10 04 
 1896 * 17	 02 07 01 00 54 0F 00 00 01 00 00 80 00 00 10 10 04 
 1897 * 17	 02 07 02 00 54 0F 00 00 02 00 00 80 00 00 10 10 04 
 1898 * 17	 02 07 03 00 04 00 00 80 03 00 00 80 00 00 10 10 04 
 1899 * 17	 02 07 04 00 04 00 00 80 05 00 00 80 00 00 10 10 04 
 1900 * 18	 02 07 10 81 43 00 FF 02 03 00 00 03 04 00 04 04 03 00 
 1901 * 22	 02 07 11 81 40 00 03 03 00 00 00 00 01 00 01 01 02 00 02 02 10 00 
// Protect 40 Years
 1902 * 18	 02 07 17 81 41 00 FF 02 01 FF 00 28 00 FF 29 FF 00 00 
// Protect 60 Years
 1903 * 18	 02 07 18 81 41 00 FF 02 01 FF 00 3C 00 FF 3D FF 00 00 
// Protect 80 Years
 1904 * 18	 02 07 19 81 41 00 FF 02 01 FF 00 50 00 FF 51 FF 00 00 
// Protect Forever
 1905 * 14	 02 07 1A 81 41 00 FF 01 01 FF 00 FF 00 00 
 1906 * 15	 02 07 1B 80 00 00 04 17 00 18 00 19 00 1A 00 
 1907 * 17	 02 07 1C 85 0C 00 FF FF 01 1B 00 43 01 43 01 11 00 
 1908 * 7	 03 07 01 1C 00 1C 00 
 
 // Department Store (W)
 1886 * 6	 01 07 06 FF 01 00 
0 art\departmentstore.png 5 206 09 35 64 -31 -4
0 art\departmentstore.png 85 206 09 70 64 -31 -39
0 art\departmentstore.png 165 206 09 74 64 -31 -43
0 art\departmentstore.png 245 206 09 74 64 -31 -43
0 art\departmentstore.png 319 206 09 31 64 -31 0
0 art\departmentstore.png 394 206 09 74 64 -31 -43
0 * 0		00 07 
		04 
		01 
		1D 
		08 22 
		10 60 EA 
		11 FF 
		1D 04 
// Action 4 to set name:  
    0 * 0	 04 07  // Action 4, Feature 7
                 9F // Language ID
                 01 // Number of strings to change
                 1D C9 // Offset
                 "Department Store West" 00 // String
                 
// Action 2 Chain:
 1895 * 17	 02 07 00 00 54 0F 00 00 00 00 00 80 00 00 10 10 04 
 1896 * 17	 02 07 01 00 54 0F 00 00 01 00 00 80 00 00 10 10 04 
 1897 * 17	 02 07 02 00 54 0F 00 00 02 00 00 80 00 00 10 10 04 
 1898 * 17	 02 07 03 00 04 00 00 80 03 00 00 80 00 00 10 10 04 
 1899 * 17	 02 07 04 00 04 00 00 80 05 00 00 80 00 00 10 10 04 
 1900 * 18	 02 07 10 81 43 00 FF 02 03 00 00 03 04 00 04 04 03 00 
 1901 * 22	 02 07 11 81 40 00 03 03 00 00 00 00 01 00 01 01 02 00 02 02 10 00 
// Protect 40 Years
 1902 * 18	 02 07 17 81 41 00 FF 02 01 FF 00 28 00 FF 29 FF 00 00 
// Protect 60 Years
 1903 * 18	 02 07 18 81 41 00 FF 02 01 FF 00 3C 00 FF 3D FF 00 00 
// Protect 80 Years
 1904 * 18	 02 07 19 81 41 00 FF 02 01 FF 00 50 00 FF 51 FF 00 00 
// Protect Forever
 1905 * 14	 02 07 1A 81 41 00 FF 01 01 FF 00 FF 00 00 
 1906 * 15	 02 07 1B 80 00 00 04 17 00 18 00 19 00 1A 00 
 1907 * 17	 02 07 1C 85 0C 00 FF FF 01 1B 00 43 01 43 01 11 00 
 1908 * 7	 03 07 01 1D 00 1C 00 
 
 // Department Store (S)
 1886 * 6	 01 07 06 FF 01 00 
0 art\departmentstore.png 5 308 09 31 64 -31 0
0 art\departmentstore.png 85 308 09 31 64 -31 0
0 art\departmentstore.png 163 308 09 31 64 -31 0
0 art\departmentstore.png 243 308 09 31 64 -31 0
0 art\departmentstore.png 316 308 09 31 64 -31 0
0 art\departmentstore.png 392 308 09 31 64 -31 0
0 * 0		00 07 
		04 
		01 
		1E 
		08 23 
		10 60 EA 
		11 FF 
		1D 04 
// Action 4 to set name:  
    0 * 0	 04 07  // Action 4, Feature 7
                 9F // Language ID
                 01 // Number of strings to change
                 1E C9 // Offset
                 "Department Store South" 00 // String
                 
// Action 2 Chain:
 1895 * 17	 02 07 00 00 54 0F 00 00 00 00 00 80 00 00 10 10 04 
 1896 * 17	 02 07 01 00 54 0F 00 00 01 00 00 80 00 00 10 10 04 
 1897 * 17	 02 07 02 00 54 0F 00 00 02 00 00 80 00 00 10 10 04 
 1898 * 17	 02 07 03 00 04 00 00 80 03 00 00 80 00 00 10 10 04 
 1899 * 17	 02 07 04 00 04 00 00 80 05 00 00 80 00 00 10 10 04 
 1900 * 18	 02 07 10 81 43 00 FF 02 03 00 00 03 04 00 04 04 03 00 
 1901 * 22	 02 07 11 81 40 00 03 03 00 00 00 00 01 00 01 01 02 00 02 02 10 00 
// Protect 40 Years
 1902 * 18	 02 07 17 81 41 00 FF 02 01 FF 00 28 00 FF 29 FF 00 00 
// Protect 60 Years
 1903 * 18	 02 07 18 81 41 00 FF 02 01 FF 00 3C 00 FF 3D FF 00 00 
// Protect 80 Years
 1904 * 18	 02 07 19 81 41 00 FF 02 01 FF 00 50 00 FF 51 FF 00 00 
// Protect Forever
 1905 * 14	 02 07 1A 81 41 00 FF 01 01 FF 00 FF 00 00 
 1906 * 15	 02 07 1B 80 00 00 04 17 00 18 00 19 00 1A 00 
 1907 * 17	 02 07 1C 85 0C 00 FF FF 01 1B 00 43 01 43 01 11 00 
 1908 * 7	 03 07 01 1E 00 1C 00 
